xflr5 v6.48

 Calculated polar for: NACA 0020

 1 1 Reynolds number fixed          Mach number fixed         

 xtrf =   1.000 (top)        1.000 (bottom)
 Mach =   0.000     Re =     0.126 e 6     Ncrit =   9.000

  alpha     CL        CD       CDp       Cm    Top Xtr Bot Xtr   Cpmin    Chinge    XCp    
 ------- -------- --------- --------- -------- ------- ------- -------- --------- ---------
   0.000   0.0000   0.01745   0.01038  -0.0000  0.7348  0.7348  -0.6869   0.0000   0.5823
   1.000   0.1136   0.01772   0.01058   0.0027  0.6777  0.7894  -0.8160   0.0000   0.2142
   2.000   0.2296   0.01853   0.01126   0.0048  0.6184  0.8386  -0.9662   0.0000   0.2171
   3.000   0.3630   0.01971   0.01223   0.0032  0.5575  0.8789  -1.1562   0.0000   0.2292
   4.000   0.5075   0.02084   0.01310  -0.0018  0.4963  0.9164  -1.3904   0.0000   0.2415
   5.000   0.6728   0.02183   0.01376  -0.0121  0.4334  0.9473  -1.6893   0.0000   0.2556
   6.000   0.8334   0.02264   0.01437  -0.0229  0.3713  0.9801  -2.0296   0.0000   0.2645
   7.000   0.9673   0.02346   0.01505  -0.0298  0.3164  1.0000  -2.3755   0.0000   0.2670
   8.000   1.0163   0.02470   0.01608  -0.0206  0.2792  1.0000  -2.6186   0.0000   0.2551
   9.000   1.0526   0.02637   0.01772  -0.0089  0.2467  1.0000  -2.8551   0.0000   0.2418
  10.000   1.0796   0.02837   0.01967   0.0046  0.2193  1.0000  -3.0876   0.0000   0.2276
  11.000   1.1042   0.03075   0.02198   0.0181  0.1962  1.0000  -3.3260   0.0000   0.2138
  12.000   1.1358   0.03351   0.02457   0.0296  0.1761  1.0000  -3.5890   0.0000   0.2024
  13.000   1.1505   0.03752   0.02888   0.0409  0.1590  1.0000  -3.8137   0.0000   0.1910
  14.000   1.1888   0.04235   0.03378   0.0468  0.1441  1.0000  -4.0977   0.0000   0.1854
  15.000   1.1943   0.04940   0.04125   0.0526  0.1323  1.0000  -4.2916   0.0000   0.1785


